I"â/Users/peterhargarten/Flatiron%20Work/Mod%202/rails-dynamic-request-readme-dumbo-web-062518/app/assets/stylesheets/application.css?type=text/css&pipeline=self&id=a8809ad7ab814bb5a40d47385f26fb9c0a8d74921c269cdf1c0d36ec592c59f6:ET