I"Ô/Users/peterhargarten/Flatiron%20Work/Mod%202/rails-dynamic-request-readme-dumbo-web-062518/app/assets/stylesheets/application.css?type=text/css&id=4e384327706cb52afb5708778242d31ac05f9dd3d7cd3b742651fd2bd83cf6a0:ET