[o:Set:
@hash}I"environment-version:ETTI"environment-paths;TTI"rails-env;TTI">processors:type=text/css&file_type=text/css&pipeline=self;TTI"êfile-digest:///Users/peterhargarten/Flatiron%20Work/Mod%202/rails-dynamic-request-readme-dumbo-web-062518/app/assets/stylesheets/application.css;TTI"Äfile-digest:///Users/peterhargarten/Flatiron%20Work/Mod%202/rails-dynamic-request-readme-dumbo-web-062518/app/assets/stylesheets;TTF