I"á/Users/peterhargarten/Flatiron%20Work/Mod%202/rails-dynamic-request-readme-dumbo-web-062518/app/assets/javascripts/application.js?type=application/javascript&id=aa6b7e6a9045ca3990498f4a04cf3a74065a16049067c504d10966914a1224e1:ET