I"ï/Users/peterhargarten/Flatiron%20Work/Mod%202/rails-dynamic-request-readme-dumbo-web-062518/app/assets/javascripts/application.js?type=application/javascript&pipeline=self&id=1f51f590f489c0465548f902477b6f55c3451a6ed3154d2dc6192feb1fb51080:ET